/*--------------------------------*- C++ -*----------------------------------*\
  =========                 |
  \\      /  F ield         | OpenFOAM: The Open Source CFD Toolbox
   \\    /   O peration     | Website:  https://openfoam.org
    \\  /    A nd           | Version:  9
     \\/     M anipulation  |
\*---------------------------------------------------------------------------*/
FoamFile
{
    format      ascii;
    class       polyBoundaryMesh;
    location    "constant/polyMesh";
    object      boundary;
}
// * * * * * * * * * * * * * * * * * * * * * * * * * * * * * * * * * * * * * //

5
(
    atmosphere
    {
        type            patch;
        nFaces          7804;
        startFace       473486;
    }
    inlet
    {
        type            patch;
        nFaces          842;
        startFace       481290;
    }
    outlet2
    {
        type            patch;
        nFaces          212;
        startFace       482132;
    }
    outlet1
    {
        type            patch;
        nFaces          832;
        startFace       482344;
    }
    concretewall
    {
        type            wall;
        nFaces          13974;
        startFace       483176;
    }
)

// ************************************************************************* //
